[default]
include => parkedcalls
include => parkedcalls-static

; Dial bob
exten => bob,1,NoOp()
	same => n,Dial(SIP/test_call@bob,,T)
	same => n,Hangup()

exten => bob-static,1,NoOp()
	same => n,Set(PARKINGLOT=parkinglot_static)
	same => n,NoOp(CHANNEL TYPE: ${CHANNEL(channeltype)})
	same => n,ExecIf($["${CHANNEL(channeltype)}" = "SIP"]?Goto(bob,1):Goto(echo,1))

; Create a Local channel and park it to fill up the parking slot
; for the static lot before calling Bob.
exten => bob-static-full,1,NoOp()
	same => n,Set(_PARKINGLOT=parkinglot_static)
	same => n,Dial(local/fill-park@default,,G(default^bob-static^1))
	same => n,Hangup()

exten => bob-dynamic,1,NoOp()
	same => n,Gosub(dynparkvars,1)
	same => n,NoOp(CHANNEL TYPE: ${CHANNEL(channeltype)})
	same => n,ExecIf($["${CHANNEL(channeltype)}" = "SIP"]?Goto(bob,1):Goto(echo,1))

; Create a Local channel and park it to fill up the parking slot
; for the dynamically created lot before calling Bob.
exten => bob-dynamic-full,1,NoOp()
	same => n,Gosub(dynparkvars,1)
	same => n,Dial(local/fill-park@default,,G(default^bob-dynamic^1))
	same => n,Hangup()

exten => dynparkvars,1,NoOp(Setting dynamic parking channel variables)
	same => n,Set(_PARKINGLOT=parkinglot_dynamic)
	same => n,Set(_PARKINGDYNAMIC=parkinglot_dynamic)
	same => n,Set(_PARKINGDYNCONTEXT=parkedcalls-dynamic)
	same => n,Set(_PARKINGDYNEXTEN=900)
	same => n,Set(_PARKINGDYNPOS=901-901)
	same => n,Return()

; Used to park local channels to fill up the parking slots
exten => fill-park,1,NoOp(filling parking lot '${PARKINGLOT}' with a local channel)
	same => n,Park()

exten => echo,1,Echo()

exten => 900,1,Park()
	same => n,Hangup()

